pyensys/tests/matpower/Distribution_Network_Urban_UK_new_contingency_7_2.m
% THIS MATLAB FILE PROVIDES THE PARAMETERS OF THE ELECTRICITY NETWORK IN GHANA

function mpc = Distribution_Network_Urban_UK

% MATPOWER Case Format : Version 2
mpc.version = '2';


%-----  Power Flow Data  -----%

% system MVA base
mpc.baseMVA = 100;

% bus data
% bus_i	type Pd	    Qd	    Gs	Bs	area Vm	   Va	baseKV	zone Vmax	Vmin
mpc.bus = [
	  1 1   0.0000   0.0000 0 0 1  1.0000 0 11 1  1.06  0.94
	  2 1   0.0000   0.0000 0 0 1  1.0000 0 11 1  1.06  0.94
	  3 1   0.0000   0.0000 0 0 1  1.0000 0 11 1  1.06  0.94
	  4 1   0.0000   0.0000 0 0 1  1.0000 0 11 1  1.06  0.94
	  5 1   0.0000   0.0000 0 0 1  1.0000 0 11 1  1.06  0.94
	  6 1   0.0000   0.0000 0 0 1  1.0000 0 11 1  1.06  0.94
	  7 3   0.0000   0.0000 0 0 1  1.0000 0 11 1  1.06  0.94
	  8 1   0.0000   0.0000 0 0 1  1.0000 0 11 1  1.06  0.94
	  9 1   0.0000   0.0000 0 0 1  1.0000 0 11 1  1.06  0.94
	 10 1   0.0000   0.0000 0 0 1  1.0000 0 11 1  1.06  0.94
	 11 1   0.0000   0.0000 0 0 1  0.9944 -6.407600e-02 11 1  1.06  0.94
	 12 1   0.1943   0.0639 0 0 1  0.9990 -1.131300e-02 11 1  1.06  0.94
	 13 1   0.4615   0.1517 0 0 1  0.9943 -6.375800e-02 11 1  1.06  0.94
	 14 1   0.6687   0.2198 0 0 1  0.9981 -2.366700e-02 11 1  1.06  0.94
	 15 1   0.3044   0.1001 0 0 1  0.9925 -8.696100e-02 11 1  1.06  0.94
	 16 1   0.0000   0.0000 0 0 1  0.9906 -1.104500e-01 11 1  1.06  0.94
	 17 1   0.5829   0.1916 0 0 1  0.9869 -1.550200e-01 11 1  1.06  0.94
	 18 1   0.0000   0.0000 0 0 1  0.9869 -1.554700e-01 11 1  1.06  0.94
	 19 1   0.0000   0.0000 0 0 1  0.9815 -2.011200e-01 11 1  1.06  0.94
	 20 1   0.4858   0.1597 0 0 1  0.9816 -2.010200e-01 11 1  1.06  0.94
	 21 1   0.0000   0.0000 0 0 1  0.9815 -2.012900e-01 11 1  1.06  0.94
	 22 1   1.0557   0.3470 0 0 1  0.9974 -3.200900e-02 11 1  1.06  0.94
	 23 1   0.5311   0.1746 0 0 1  0.9884 -1.373200e-01 11 1  1.06  0.94
	 24 1   0.1214   0.0399 0 0 1  0.9815 -2.012600e-01 11 1  1.06  0.94
	 25 1   0.8501   0.2794 0 0 1  0.9821 -2.002500e-01 11 1  1.06  0.94
	 26 1   0.6849   0.2251 0 0 1  0.9833 -1.988700e-01 11 1  1.06  0.94
	 27 1   0.0000   0.0000 0 0 1  0.9821 -2.002500e-01 11 1  1.06  0.94
	 28 1   0.3238   0.1064 0 0 1  0.9814 -2.071900e-01 11 1  1.06  0.94
	 29 1   0.0000   0.0000 0 0 1  0.9816 -2.072500e-01 11 1  1.06  0.94
	 30 1   0.2429   0.0798 0 0 1  0.9815 -2.071300e-01 11 1  1.06  0.94
	];

% branch data
%fbus tbus	r           x	    b	    rateA   B	C ratio	angle status angmin	angmax
mpc.branch = [
	 22  21   0.00364463   0.00185124 0.000000 6.949992e+00 8.339991e+00 8.339991 0.000000 0.000000 1 -360 360
	  7   2   0.00000030   0.00000030 0.000000 1.000000e+02 1.200000e+02 120.000027 0.000000 0.000000 0 -360 360
	  2   4   0.00000030   0.00000030 0.000000 1.000000e+02 1.200000e+02 120.000027 0.000000 0.000000 1 -360 360
	  4   5   0.00000060   0.00000060 0.000000 1.000000e+02 1.200000e+02 120.000027 0.000000 0.000000 1 -360 360
	 10   5   0.00000018   0.00000018 0.000000 1.000000e+02 1.200000e+02 120.000027 0.000000 0.000000 1 -360 360
	  8  10   0.00000035   0.00000035 0.000000 1.000000e+02 1.200000e+02 120.000027 0.000000 0.000000 1 -360 360
	 12   8   0.04198340   0.02408020 0.000000 6.949992e+00 8.339991e+00 8.339991 0.000000 0.000000 1 -360 360
	 12  14   0.04738520   0.02804300 0.000000 7.999998e+00 9.599998e+00 9.599998 0.000000 0.000000 1 -360 360
	 14  22   0.05515000   0.03185420 0.000000 6.850005e+00 8.220006e+00 8.220006 0.000000 0.000000 1 -360 360
	  1   7   0.00000030   0.00000030 0.000000 1.000000e+02 1.200000e+02 120.000027 0.000000 0.000000 1 -360 360
	  3   1   0.00000030   0.00000030 0.000000 1.000000e+02 1.200000e+02 120.000027 0.000000 0.000000 1 -360 360
	  9   3   0.00000018   0.00000018 0.000000 1.000000e+02 1.200000e+02 120.000027 0.000000 0.000000 1 -360 360
	  6   9   0.00000035   0.00000035 0.000000 1.000000e+02 1.200000e+02 120.000027 0.000000 0.000000 1 -360 360
	 11   6   0.10178300   0.05769150 0.000000 6.850005e+00 8.220006e+00 8.220006 0.000000 0.000000 1 -360 360
	 16  15   0.04173050   0.02425360 0.000000 6.850005e+00 8.220006e+00 8.220006 0.000000 0.000000 1 -360 360
	 23  16   0.04753960   0.02762980 0.000000 6.850005e+00 8.220006e+00 8.220006 0.000000 0.000000 1 -360 360
	 17  23   0.03624200   0.02106370 0.000000 6.850005e+00 8.220006e+00 8.220006 0.000000 0.000000 1 -360 360
	 18  17   0.00109855   0.00063847 0.000000 6.850005e+00 8.220006e+00 8.220006 0.000000 0.000000 1 -360 360
	 26  18   0.10739200   0.06241610 0.000000 6.850005e+00 8.220006e+00 8.220006 0.000000 0.000000 1 -360 360
	 25  26   0.05274880   0.01848930 0.000000 5.329991e+00 6.395990e+00 6.395990 0.000000 0.000000 1 -360 360
	 29  25   0.08238350   0.04788100 0.000000 6.850005e+00 8.220006e+00 8.220006 0.000000 0.000000 1 -360 360
	 29  28   0.05022660   0.01615920 0.000000 5.329991e+00 6.395990e+00 6.395990 0.000000 0.000000 1 -360 360
	 29  30   0.01554960   0.00422479 0.000000 6.850005e+00 8.220006e+00 8.220006 0.000000 0.000000 1 -360 360
	 20  25   0.07949330   0.02826310 0.000000 6.860007e+00 8.232009e+00 8.232009 0.000000 0.000000 1 -360 360
	 19  20   0.03035330   0.01134870 0.000000 1.286000e+01 1.543200e+01 15.432001 0.000000 0.000000 1 -360 360
	 21  19   0.04840060   0.01830580 0.000000 4.660008e+00 5.592010e+00 5.592010 0.000000 0.000000 1 -360 360
	 21  24   0.00591322   0.00160661 0.000000 6.850005e+00 8.220006e+00 8.220006 0.000000 0.000000 1 -360 360
	 25  27   0.05411350   0.01470250 0.000000 6.850005e+00 8.220006e+00 8.220006 0.000000 0.000000 1 -360 360
	 15  11   0.03780740   0.02197360 0.000000 6.850005e+00 8.220006e+00 8.220006 0.000000 0.000000 1 -360 360
	 11  13   0.02080580   0.00565289 0.000000 6.850005e+00 8.220006e+00 8.220006 0.000000 0.000000 1 -360 360
	];

% Generator data
% bus	Pg	    Qg	  Qmax Qmin	Vg   mBase status Pmax Pmin	Pc1	Pc2	Qc1min	Qc1max	Qc2min Qc2max ramp_acg	ramp_10	ramp_30	ramp_q  Apf
mpc.gen = [
	  7 6.546940 2.160928 1000 -1000 1 100 1 1000 -1000 0 0 0 0 0 0 0 0 0 0 0
	];

%% generator cost data
mpc.gencost = [
2	0	0	2	0	1	0
	];
